"Your experiment name here"
0 0 0 0 0 0
# Add files and variables below, as demonstrated with diag_table_default
